1000.0000  300.5000  14.0000    
125.0000  300.5000  14.0000  0.6250  0.0000000E+00
375.0000  300.5650  14.0000  1.8750  0.0000000E+00
625.0000  301.0699  14.0000  3.1250  0.0000000E+00
875.0000  301.6293  14.0000  4.3750  0.0000000E+00
1125.0000  302.2307  14.0000  5.6250  0.0000000E+00
1375.0000  302.8666  13.1191  6.8750  0.0000000E+00
1625.0000  303.5323  11.8756  8.1250  0.0000000E+00
1875.0000  304.2242  10.7420  9.3750  0.0000000E+00
2125.0000  304.9395  9.7079  10.6250  0.0000000E+00
2375.0000  305.6764  8.7643  11.8750  0.0000000E+00
2625.0000  306.4329  7.9033  13.1250  0.0000000E+00
2875.0000  307.2076  7.1179  14.3750  0.0000000E+00
3125.0000  307.9994  6.4018  15.6250  0.0000000E+00
3375.0000  308.8071  5.7493  16.8750  0.0000000E+00
3625.0000  309.6300  5.1553  18.1250  0.0000000E+00
3875.0000  310.4672  4.6150  19.3750  0.0000000E+00
4125.0000  311.3181  4.1241  20.6250  0.0000000E+00
4375.0000  312.1819  3.6788  21.8750  0.0000000E+00
4625.0000  313.0581  3.2752  23.1250  0.0000000E+00
4875.0000  313.9464  2.9100  24.3750  0.0000000E+00
5125.0000  314.8460  2.5800  25.0000  0.0000000E+00
5375.0000  315.7567  2.2825  25.0000  0.0000000E+00
5625.0000  316.6780  2.0145  25.0000  0.0000000E+00
5875.0000  317.6097  1.7738  25.0000  0.0000000E+00
6125.0000  318.5513  1.5579  25.0000  0.0000000E+00
6375.0000  319.5026  1.3647  25.0000  0.0000000E+00
6625.0000  320.4632  1.1922  25.0000  0.0000000E+00
6875.0000  321.4330  1.0385  25.0000  0.0000000E+00
7125.0000  322.4116  0.9019  25.0000  0.0000000E+00
7375.0000  323.3988  0.7809  25.0000  0.0000000E+00
7625.0000  324.3945  0.6739  25.0000  0.0000000E+00
7875.0000  325.3983  0.5796  25.0000  0.0000000E+00
8125.0000  326.4102  0.4967  25.0000  0.0000000E+00
8375.0000  327.4298  0.4241  25.0000  0.0000000E+00
8625.0000  328.4571  0.3606  25.0000  0.0000000E+00
8875.0000  329.4919  0.3054  25.0000  0.0000000E+00
9125.0000  330.5339  0.2576  25.0000  0.0000000E+00
9375.0000  331.5832  0.2162  25.0000  0.0000000E+00
9625.0000  332.6394  0.1806  25.0000  0.0000000E+00
9875.0000  333.7025  0.1502  25.0000  0.0000000E+00
10125.0000  334.7725  0.1241  25.0000  0.0000000E+00
10375.0000  335.8490  0.1020  25.0000  0.0000000E+00
10625.0000  336.9320  0.0834  25.0000  0.0000000E+00
10875.0000  338.0214  0.0677  25.0000  0.0000000E+00
11125.0000  339.1171  0.0545  25.0000  0.0000000E+00
11375.0000  340.2190  0.0436  25.0000  0.0000000E+00
11625.0000  341.3269  0.0346  25.0000  0.0000000E+00
11875.0000  342.4408  0.0272  25.0000  0.0000000E+00
12125.0000  344.9724  0.0246  25.0000  0.0000000E+00
12375.0000  348.9513  0.0257  25.0000  0.0000000E+00
12625.0000  352.9761  0.0269  25.0000  0.0000000E+00
12875.0000  357.0473  0.0282  25.0000  0.0000000E+00
13125.0000  361.1655  0.0295  25.0000  0.0000000E+00
13375.0000  365.3311  0.0309  25.0000  0.0000000E+00
13625.0000  369.5448  0.0323  25.0000  0.0000000E+00
13875.0000  373.8072  0.0338  25.0000  0.0000000E+00
14125.0000  378.1187  0.0354  25.0000  0.0000000E+00
14375.0000  382.4798  0.0371  25.0000  0.0000000E+00
14625.0000  386.8913  0.0388  25.0000  0.0000000E+00
14875.0000  391.3537  0.0406  25.0000  0.0000000E+00
15125.0000  395.8676  0.0425  25.0000  0.0000000E+00
15375.0000  400.4335  0.0445  25.0000  0.0000000E+00
15625.0000  405.0521  0.0467  25.0000  0.0000000E+00
15875.0000  409.7239  0.0489  25.0000  0.0000000E+00
16125.0000  414.4497  0.0512  25.0000  0.0000000E+00
16375.0000  419.2299  0.0536  25.0000  0.0000000E+00
16625.0000  424.0653  0.0562  25.0000  0.0000000E+00
16875.0000  428.9565  0.0588  25.0000  0.0000000E+00
17125.0000  433.9040  0.0616  25.0000  0.0000000E+00
17375.0000  438.9086  0.0646  25.0000  0.0000000E+00
17625.0000  443.9710  0.0677  25.0000  0.0000000E+00
17875.0000  449.0917  0.0709  25.0000  0.0000000E+00
18125.0000  454.2715  0.0743  25.0000  0.0000000E+00
18375.0000  459.5110  0.0779  25.0000  0.0000000E+00
18625.0000  464.8110  0.0816  25.0000  0.0000000E+00
18875.0000  470.1721  0.0856  25.0000  0.0000000E+00
19125.0000  475.5951  0.0897  25.0000  0.0000000E+00
19375.0000  481.0806  0.0940  25.0000  0.0000000E+00
19625.0000  486.6293  0.0940  25.0000  0.0000000E+00
19875.0000  492.2421  0.0940  25.0000  0.0000000E+00
